 &MOM_input_nml
         output_directory = './',
         input_filename = 'r',
         restart_input_dir = '/glade/u/home/rarmstrong/work/cesm/cesm2_3_alpha12b+mom6_marbl/components/mom/standalone/examples/single_column_MARBL/BATS/RESTART/DART_ensemble/member_0001',
         restart_output_dir = '/glade/u/home/rarmstrong/work/cesm/cesm2_3_alpha12b+mom6_marbl/components/mom/standalone/examples/single_column_MARBL/BATS/RESTART/DART_ensemble/member_0001',
         parameter_filename = 'MOM_input',
                              'MOM_override',
                              'MOM_override2' /

 &diag_manager_nml
   max_output_fields = 750,
 /

 &ocean_solo_nml
   calendar = 'NOLEAP'
/
 
 &fms_nml
         clock_grain = 'LOOP',
         domains_stack_size = 710000,
         stack_size = 0 /
